Circuit: * Z:\home\denis\BACKUP\EEZ\git-public\modular-psu\dcp505\Spice\OVP\OVP max current simulation.asc

Direct Newton iteration for .op point succeeded.

Date: Sun Dec 30 23:56:14 2018
Total elapsed time: 0.040 seconds.

tnom = 27
temp = 27
method = modified trap
totiter = 2234
traniter = 2231
tranpoints = 1113
accept = 1097
rejected = 16
matrix size = 7
fillins = 0
solver = Normal
Matrix Compiler1: 178 bytes object code size  0.3/0.3/[0.3]
Matrix Compiler2: 399 bytes object code size  0.3/0.4/[0.3]

